LTspice 24.0.12 for Windows
Circuit: * D:\LTSpices\LTSpices\RC lowpass and highpass\RC lowpass and highpass.asc
Start Time: Sun Feb  2 14:52:11 2025
solver = Normal
Maximum thread count: 8
tnom = 27
temp = 27
method = modified trap
.OP point found by inspection.
Total elapsed time: 0.089 seconds.

