LTspice 24.0.12 for Windows
Circuit: * D:\LTSpices\LTSpices\RLC bandpass and notch\RLC bandpass and notch.asc
Start Time: Sun Feb  2 19:38:00 2025
solver = Normal
Maximum thread count: 8
tnom = 27
temp = 27
method = modified trap
.OP point found by inspection.
Total elapsed time: 0.065 seconds.

